/*--------------------------------*- C++ -*----------------------------------*\
  =========                 |
  \\      /  F ield         | OpenFOAM: The Open Source CFD Toolbox
   \\    /   O peration     | Website:  https://openfoam.org
    \\  /    A nd           | Version:  8
     \\/     M anipulation  |
\*---------------------------------------------------------------------------*/
FoamFile
{
    version     2.0;
    format      ascii;
    class       volScalarField;
    object      omega;
}
// * * * * * * * * * * * * * * * * * * * * * * * * * * * * * * * * * * * * * //

dimensions [0 0 -1 0 0 0 0];
#include        "include/initialConditions"


internalField   uniform $turbulentOmega;

boundaryField
{
    #include        "include/ABLConditions"
    inlet
    {
        type fixedValue;
        value	$internalField;
    }

    outlet
    {
        type            inletOutlet;
        inletValue      $internalField;
        value           $internalField;
    }


    ".*"
    {
        type            omegaWallFunction;
        value           $internalField;
    }

    #include    "include/setConstraintTypes"
}

// ************************************************************************* //
